
  Chem3D Core 19.004122515293D

 11 10  0  0  0  0  0  0  0  0999 V2000
    1.1335    0.3476    0.6524 C   0  0  0  0  0  0  0  0  0  0  0  0
   -0.0483   -0.5443    0.5604 C   0  0  0  0  0  0  0  0  0  0  0  0
    0.7861    1.6024    0.6875 F   0  0  0  0  0  0  0  0  0  0  0  0
    1.8271    0.1085    1.7316 F   0  0  0  0  0  0  0  0  0  0  0  0
    1.9338    0.1900   -0.3630 F   0  0  0  0  0  0  0  0  0  0  0  0
   -0.9378   -0.3910   -0.6168 C   0  0  0  0  0  0  0  0  0  0  0  0
    0.3118   -1.6024    0.5886 H   0  0  0  0  0  0  0  0  0  0  0  0
   -0.6643   -0.4011    1.4825 H   0  0  0  0  0  0  0  0  0  0  0  0
   -1.9338   -1.2331   -0.5732 F   0  0  0  0  0  0  0  0  0  0  0  0
   -1.4473    0.8059   -0.6806 F   0  0  0  0  0  0  0  0  0  0  0  0
   -0.2997   -0.6061   -1.7316 F   0  0  0  0  0  0  0  0  0  0  0  0
  1  2  1  0      
  1  3  1  0      
  1  4  1  0      
  1  5  1  0      
  2  6  1  0      
  2  7  1  0      
  2  8  1  0      
  6  9  1  0      
  6 10  1  0      
  6 11  1  0      
M  END
