
  Chem3D Core 19.004122514593D

  8  7  0  0  0  0  0  0  0  0999 V2000
    0.7501   -0.0001    0.0001 C   0  0  0  0  0  0  0  0  0  0  0  0
   -0.7501    0.0001   -0.0001 C   0  0  0  0  0  0  0  0  0  0  0  0
   -1.2264   -1.2161    0.0001 F   0  0  0  0  0  0  0  0  0  0  0  0
   -1.2260    0.6080   -1.0536 F   0  0  0  0  0  0  0  0  0  0  0  0
   -1.2264    0.6085    1.0530 F   0  0  0  0  0  0  0  0  0  0  0  0
    1.2264    1.2161   -0.0001 F   0  0  0  0  0  0  0  0  0  0  0  0
    1.2260   -0.6080    1.0536 F   0  0  0  0  0  0  0  0  0  0  0  0
    1.2264   -0.6085   -1.0530 F   0  0  0  0  0  0  0  0  0  0  0  0
  1  2  1  0      
  1  6  1  0      
  1  7  1  0      
  1  8  1  0      
  2  3  1  0      
  2  4  1  0      
  2  5  1  0      
M  END
