
  Chem3D Core 19.004122515133D

  9  8  0  0  0  0  0  0  0  0999 V2000
   -0.8145    0.4824    0.4501 C   0  0  0  0  0  0  0  0  0  0  0  0
   -1.1387   -0.1094    1.5901 F   0  0  0  0  0  0  0  0  0  0  0  0
   -1.9407    0.7851   -0.1783 F   0  0  0  0  0  0  0  0  0  0  0  0
   -0.1997    1.6156    0.7444 F   0  0  0  0  0  0  0  0  0  0  0  0
    0.0326   -0.4608   -0.4110 C   0  0  0  0  0  0  0  0  0  0  0  0
   -0.5427   -1.6156   -0.7359 F   0  0  0  0  0  0  0  0  0  0  0  0
    1.2836   -0.2054   -0.8477 C   0  0  0  0  0  0  0  0  0  0  0  0
    1.9407   -1.0837   -1.5901 F   0  0  0  0  0  0  0  0  0  0  0  0
    1.9027    0.9251   -0.5549 F   0  0  0  0  0  0  0  0  0  0  0  0
  1  2  1  0      
  1  3  1  0      
  1  4  1  0      
  1  5  1  0      
  5  6  1  0      
  5  7  2  0      
  7  8  1  0      
  7  9  1  0      
M  END
