
  Chem3D Core 19.004142523183D

  9  8  0  0  0  0  0  0  0  0999 V2000
   -1.3993   -0.4035   -0.0355 C   0  0  0  0  0  0  0  0  0  0  0  0
   -2.2049   -0.1829   -1.0634 F   0  0  0  0  0  0  0  0  0  0  0  0
   -2.0379   -0.0309    1.0634 F   0  0  0  0  0  0  0  0  0  0  0  0
   -1.1888   -1.7077    0.0412 F   0  0  0  0  0  0  0  0  0  0  0  0
   -0.1016    0.3866   -0.1938 C   0  0  0  0  0  0  0  0  0  0  0  0
   -0.2164    1.7077   -0.2797 F   0  0  0  0  0  0  0  0  0  0  0  0
    1.1148   -0.1857   -0.2478 C   0  0  0  0  0  0  0  0  0  0  0  0
    2.2049    0.5523   -0.3860 F   0  0  0  0  0  0  0  0  0  0  0  0
    1.2330   -1.2775   -0.1786 H   0  0  0  0  0  0  0  0  0  0  0  0
  1  2  1  0      
  1  3  1  0      
  1  4  1  0      
  1  5  1  0      
  5  6  1  0      
  5  7  2  0      
  7  8  1  0      
  7  9  1  0      
M  END
