
  Chem3D Core 19.003282522273D

  9  8  0  0  0  0  0  0  0  0999 V2000
   -0.8024   -0.6631    0.2116 C   0  0  0  0  0  0  0  0  0  0  0  0
   -1.2336   -1.1083   -0.9588 F   0  0  0  0  0  0  0  0  0  0  0  0
   -1.8667   -0.4118    0.9588 F   0  0  0  0  0  0  0  0  0  0  0  0
   -0.1256   -1.6423    0.7908 F   0  0  0  0  0  0  0  0  0  0  0  0
    0.0269    0.6021    0.0256 C   0  0  0  0  0  0  0  0  0  0  0  0
   -0.5662    1.6423   -0.5474 F   0  0  0  0  0  0  0  0  0  0  0  0
    1.3074    0.7062    0.4096 C   0  0  0  0  0  0  0  0  0  0  0  0
    1.8667    1.6415    0.2542 H   0  0  0  0  0  0  0  0  0  0  0  0
    1.8438   -0.1258    0.8884 H   0  0  0  0  0  0  0  0  0  0  0  0
  1  2  1  0      
  1  3  1  0      
  1  4  1  0      
  1  5  1  0      
  5  6  1  0      
  5  7  2  0      
  7  8  1  0      
  7  9  1  0      
M  END
