
  Chem3D Core 19.004122515043D

  9  8  0  0  0  0  0  0  0  0999 V2000
   -0.8547   -0.7522    0.2252 C   0  0  0  0  0  0  0  0  0  0  0  0
   -1.2718   -1.2171   -0.9422 F   0  0  0  0  0  0  0  0  0  0  0  0
   -1.9282   -0.4582    0.9422 F   0  0  0  0  0  0  0  0  0  0  0  0
   -0.2089   -1.7275    0.8430 F   0  0  0  0  0  0  0  0  0  0  0  0
   -0.0034    0.4739    0.0282 C   0  0  0  0  0  0  0  0  0  0  0  0
    1.2724    0.6013    0.4230 C   0  0  0  0  0  0  0  0  0  0  0  0
    1.9282    1.7275    0.1980 F   0  0  0  0  0  0  0  0  0  0  0  0
   -0.4848    1.3249   -0.4837 H   0  0  0  0  0  0  0  0  0  0  0  0
    1.7955   -0.2189    0.9370 H   0  0  0  0  0  0  0  0  0  0  0  0
  1  2  1  0      
  1  3  1  0      
  1  4  1  0      
  1  5  1  0      
  5  6  2  0      
  5  8  1  0      
  6  7  1  0      
  6  9  1  0      
M  END
