
  Chem3D Core 19.003282522273D

  9  8  0  0  0  0  0  0  0  0999 V2000
   -1.3180   -0.4988   -0.7024 C   0  0  0  0  0  0  0  0  0  0  0  0
   -0.0423   -0.0975   -0.6095 C   0  0  0  0  0  0  0  0  0  0  0  0
    0.8094   -0.2270    0.6226 C   0  0  0  0  0  0  0  0  0  0  0  0
    1.2302    0.9646    1.0175 F   0  0  0  0  0  0  0  0  0  0  0  0
    1.8831   -0.9573    0.3642 F   0  0  0  0  0  0  0  0  0  0  0  0
    0.1747   -0.7881    1.6390 F   0  0  0  0  0  0  0  0  0  0  0  0
   -1.8831   -0.3724   -1.6390 H   0  0  0  0  0  0  0  0  0  0  0  0
   -1.8435   -0.9646    0.1441 H   0  0  0  0  0  0  0  0  0  0  0  0
    0.4339    0.3638   -1.4920 H   0  0  0  0  0  0  0  0  0  0  0  0
  1  2  2  0      
  1  7  1  0      
  1  8  1  0      
  2  3  1  0      
  2  9  1  0      
  3  4  1  0      
  3  5  1  0      
  3  6  1  0      
M  END
