
  Chem3D Core 19.004122515243D

  8  7  0  0  0  0  0  0  0  0999 V2000
    0.2027    1.2744    0.5015 F   0  0  0  0  0  0  0  0  0  0  0  0
    0.1682   -0.0299    0.4349 C   0  0  0  0  0  0  0  0  0  0  0  0
    1.4092   -0.4327    0.5017 F   0  0  0  0  0  0  0  0  0  0  0  0
   -0.4246   -0.4488    1.5205 F   0  0  0  0  0  0  0  0  0  0  0  0
   -0.5449   -0.5341   -0.7834 C   0  0  0  0  0  0  0  0  0  0  0  0
   -0.9685    0.4906   -1.5200 F   0  0  0  0  0  0  0  0  0  0  0  0
    0.2802   -1.2744   -1.5205 F   0  0  0  0  0  0  0  0  0  0  0  0
   -1.4092   -1.1456   -0.5024 H   0  0  0  0  0  0  0  0  0  0  0  0
  1  2  1  0      
  2  3  1  0      
  2  4  1  0      
  2  5  1  0      
  5  6  1  0      
  5  7  1  0      
  5  8  1  0      
M  END
