
  Chem3D Core 19.004122515243D

  8  7  0  0  0  0  0  0  0  0999 V2000
    0.7380   -0.0257   -0.0004 C   0  0  0  0  0  0  0  0  0  0  0  0
   -0.7351   -0.0170   -0.0002 C   0  0  0  0  0  0  0  0  0  0  0  0
   -1.1932   -1.2392   -0.0004 F   0  0  0  0  0  0  0  0  0  0  0  0
   -1.2249    0.5689    1.0571 F   0  0  0  0  0  0  0  0  0  0  0  0
   -1.2252    0.5693   -1.0571 F   0  0  0  0  0  0  0  0  0  0  0  0
    1.2252    1.2392   -0.0002 F   0  0  0  0  0  0  0  0  0  0  0  0
    1.1225   -0.5481   -0.8950 H   0  0  0  0  0  0  0  0  0  0  0  0
    1.1228   -0.5485    0.8939 H   0  0  0  0  0  0  0  0  0  0  0  0
  1  2  1  0      
  1  6  1  0      
  1  7  1  0      
  1  8  1  0      
  2  3  1  0      
  2  4  1  0      
  2  5  1  0      
M  END
