
  Chem3D Core 19.004122515193D

 12 11  0  0  0  0  0  0  0  0999 V2000
   -0.6615   -0.6334    0.1126 C   0  0  0  0  0  0  0  0  0  0  0  0
    0.6615   -0.6322   -0.1271 C   0  0  0  0  0  0  0  0  0  0  0  0
   -1.6207    0.5265    0.1795 C   0  0  0  0  0  0  0  0  0  0  0  0
   -1.1491   -1.6239    0.1813 H   0  0  0  0  0  0  0  0  0  0  0  0
    1.1491   -1.6219   -0.2057 H   0  0  0  0  0  0  0  0  0  0  0  0
    1.6207    0.5283   -0.1824 C   0  0  0  0  0  0  0  0  0  0  0  0
   -1.9120    0.8060    1.4400 F   0  0  0  0  0  0  0  0  0  0  0  0
   -2.7572    0.2167   -0.4276 F   0  0  0  0  0  0  0  0  0  0  0  0
   -1.1630    1.6239   -0.3950 F   0  0  0  0  0  0  0  0  0  0  0  0
    1.9120    0.8204   -1.4400 F   0  0  0  0  0  0  0  0  0  0  0  0
    2.7572    0.2125    0.4216 F   0  0  0  0  0  0  0  0  0  0  0  0
    1.1629    1.6199    0.4031 F   0  0  0  0  0  0  0  0  0  0  0  0
  1  2  2  0      
  1  3  1  0      
  1  4  1  0      
  2  5  1  0      
  2  6  1  0      
  3  7  1  0      
  3  8  1  0      
  3  9  1  0      
  6 10  1  0      
  6 11  1  0      
  6 12  1  0      
M  END
