
  Chem3D Core 19.004122515243D

  8  7  0  0  0  0  0  0  0  0999 V2000
   -0.7704   -0.0868   -0.0004 C   0  0  0  0  0  0  0  0  0  0  0  0
    0.6957   -0.0870   -0.0002 C   0  0  0  0  0  0  0  0  0  0  0  0
    1.1751    1.1252   -0.0004 F   0  0  0  0  0  0  0  0  0  0  0  0
    1.1748   -0.6929    1.0498 F   0  0  0  0  0  0  0  0  0  0  0  0
    1.1751   -0.6933   -1.0498 F   0  0  0  0  0  0  0  0  0  0  0  0
   -1.1751   -1.1252   -0.0003 H   0  0  0  0  0  0  0  0  0  0  0  0
   -1.1748    0.4323   -0.8999 H   0  0  0  0  0  0  0  0  0  0  0  0
   -1.1750    0.4327    0.8988 H   0  0  0  0  0  0  0  0  0  0  0  0
  1  2  1  0      
  1  6  1  0      
  1  7  1  0      
  1  8  1  0      
  2  3  1  0      
  2  4  1  0      
  2  5  1  0      
M  END
