
  Chem3D Core 19.004122515233D

  8  7  0  0  0  0  0  0  0  0999 V2000
   -0.3126    0.7590   -0.0924 C   0  0  0  0  0  0  0  0  0  0  0  0
   -0.3166   -0.7361   -0.0992 C   0  0  0  0  0  0  0  0  0  0  0  0
    0.9356   -1.1809   -0.0918 F   0  0  0  0  0  0  0  0  0  0  0  0
   -0.9356   -1.1808    0.9893 F   0  0  0  0  0  0  0  0  0  0  0  0
   -0.8300    1.1714   -0.9893 H   0  0  0  0  0  0  0  0  0  0  0  0
   -0.8303    1.1809    0.7991 H   0  0  0  0  0  0  0  0  0  0  0  0
    0.7184    1.1808   -0.0944 H   0  0  0  0  0  0  0  0  0  0  0  0
   -0.8289   -1.1252   -0.9859 H   0  0  0  0  0  0  0  0  0  0  0  0
  1  2  1  0      
  1  5  1  0      
  1  6  1  0      
  1  7  1  0      
  2  3  1  0      
  2  4  1  0      
  2  8  1  0      
M  END
