
  Chem3D Core 19.004122515133D

 11 10  0  0  0  0  0  0  0  0999 V2000
    1.1735   -0.2872    0.5070 C   0  0  0  0  0  0  0  0  0  0  0  0
   -0.3333   -0.2373    0.4211 C   0  0  0  0  0  0  0  0  0  0  0  0
   -0.9254    0.4632   -0.7929 C   0  0  0  0  0  0  0  0  0  0  0  0
   -0.7812    0.3400    1.5267 F   0  0  0  0  0  0  0  0  0  0  0  0
   -0.7816   -1.4833    0.4748 F   0  0  0  0  0  0  0  0  0  0  0  0
    1.6736    0.9180    0.5207 F   0  0  0  0  0  0  0  0  0  0  0  0
    1.5994   -0.9048    1.5769 F   0  0  0  0  0  0  0  0  0  0  0  0
    1.6732   -0.9022   -0.5297 F   0  0  0  0  0  0  0  0  0  0  0  0
    0.0111    0.9164   -1.5769 F   0  0  0  0  0  0  0  0  0  0  0  0
   -1.6724   -0.3309   -1.5132 F   0  0  0  0  0  0  0  0  0  0  0  0
   -1.6736    1.4833   -0.4659 F   0  0  0  0  0  0  0  0  0  0  0  0
  1  2  1  0      
  1  6  1  0      
  1  7  1  0      
  1  8  1  0      
  2  3  1  0      
  2  4  1  0      
  2  5  1  0      
  3  9  1  0      
  3 10  1  0      
  3 11  1  0      
M  END
