
  Chem3D Core 19.004122514593D

 11 10  0  0  0  0  0  0  0  0999 V2000
    1.1574   -0.7292   -0.4320 C   0  0  0  0  0  0  0  0  0  0  0  0
    0.8232   -0.9187   -1.6778 F   0  0  0  0  0  0  0  0  0  0  0  0
    1.8250   -1.7874   -0.0587 F   0  0  0  0  0  0  0  0  0  0  0  0
    1.9643    0.2938   -0.4038 F   0  0  0  0  0  0  0  0  0  0  0  0
   -0.0625   -0.5132    0.4008 C   0  0  0  0  0  0  0  0  0  0  0  0
    0.3445   -0.3651    1.6778 F   0  0  0  0  0  0  0  0  0  0  0  0
   -0.9240    0.6604    0.0705 C   0  0  0  0  0  0  0  0  0  0  0  0
   -0.2731    1.7874    0.1370 F   0  0  0  0  0  0  0  0  0  0  0  0
   -1.9643    0.7416    0.8554 F   0  0  0  0  0  0  0  0  0  0  0  0
   -1.3814    0.5539   -1.1458 F   0  0  0  0  0  0  0  0  0  0  0  0
   -0.6872   -1.4274    0.3412 H   0  0  0  0  0  0  0  0  0  0  0  0
  1  2  1  0      
  1  3  1  0      
  1  4  1  0      
  1  5  1  0      
  5  6  1  0      
  5  7  1  0      
  5 11  1  0      
  7  8  1  0      
  7  9  1  0      
  7 10  1  0      
M  END
