
  Chem3D Core 19.004122515133D

  5  4  0  0  0  0  0  0  0  0999 V2000
    1.0676    0.6208    0.0907 F   0  0  0  0  0  0  0  0  0  0  0  0
   -0.0635   -0.0490    0.0964 C   0  0  0  0  0  0  0  0  0  0  0  0
   -1.0676    0.7994    0.0907 F   0  0  0  0  0  0  0  0  0  0  0  0
   -0.1263   -0.7994   -0.9811 F   0  0  0  0  0  0  0  0  0  0  0  0
   -0.1157   -0.6728    0.9811 H   0  0  0  0  0  0  0  0  0  0  0  0
  1  2  1  0      
  2  3  1  0      
  2  4  1  0      
  2  5  1  0      
M  END
