
  Chem3D Core 19.004122515233D

 11 10  0  0  0  0  0  0  0  0999 V2000
   -1.3174   -0.1898    0.0201 C   0  0  0  0  0  0  0  0  0  0  0  0
   -0.0007    0.4826    0.0064 C   0  0  0  0  0  0  0  0  0  0  0  0
    1.2008   -0.4202    0.0322 C   0  0  0  0  0  0  0  0  0  0  0  0
   -2.2962    0.6721    0.0564 F   0  0  0  0  0  0  0  0  0  0  0  0
    1.2020   -1.1601   -1.0698 F   0  0  0  0  0  0  0  0  0  0  0  0
   -1.5033   -0.9395   -1.0288 F   0  0  0  0  0  0  0  0  0  0  0  0
   -1.4351   -0.9526    1.0698 F   0  0  0  0  0  0  0  0  0  0  0  0
    2.2962    0.3339    0.0473 F   0  0  0  0  0  0  0  0  0  0  0  0
    0.0539    1.1601    0.8944 H   0  0  0  0  0  0  0  0  0  0  0  0
    0.0568    1.1406   -0.8951 H   0  0  0  0  0  0  0  0  0  0  0  0
    1.1900   -1.0672    0.9149 H   0  0  0  0  0  0  0  0  0  0  0  0
  1  2  1  0      
  1  4  1  0      
  1  6  1  0      
  1  7  1  0      
  2  3  1  0      
  2  9  1  0      
  2 10  1  0      
  3  5  1  0      
  3  8  1  0      
  3 11  1  0      
M  END
