
  Chem3D Core 19.004122515133D

  5  4  0  0  0  0  0  0  0  0999 V2000
    1.0888    0.5629    0.0003 F   0  0  0  0  0  0  0  0  0  0  0  0
   -0.0645   -0.1155    0.0001 C   0  0  0  0  0  0  0  0  0  0  0  0
   -1.0888    0.7453    0.0003 F   0  0  0  0  0  0  0  0  0  0  0  0
   -0.1172   -0.7448   -0.8919 H   0  0  0  0  0  0  0  0  0  0  0  0
   -0.1172   -0.7453    0.8919 H   0  0  0  0  0  0  0  0  0  0  0  0
  1  2  1  0      
  2  3  1  0      
  2  4  1  0      
  2  5  1  0      
M  END
